AeroDyn airfoil file Created with QBlade v0.963 64bit on 05.06.2018 at 17:14:50 Compatible with AeroDyn v13.0.
Polar "NACA0021_Re3.000_M0.02_N9.0 360 V" on Foil "NACA0021_Re3.000_M0.02_N9.0" :: generated by QBlade
1              Number of airfoil tables in this file
0              Table ID parameter
19.00          Stall angle (deg)
0              No longer used, enter zero
0              No longer used, enter zero
0              No longer used, enter zero
-0.00          Angle of attack for zero Cn for linear Cn curve (deg)
6.43194        Cn slope for zero lift for linear Cn curve (1/rad)
1.0396         Cn at stall value for positive angle of attack for linear Cn curve
-1.0388        Cn at stall value for negative angle of attack for linear Cn curve
1.00           Angle of attack for minimum CD (deg)
0.0066         Minimum CD value
   -180.00    0.0000    0.0000
   -179.00    0.0227    0.0004
   -178.00    0.0453    0.0016
   -177.00    0.0679    0.0036
   -176.00    0.0904    0.0063
   -175.00    0.1128    0.0099
   -174.00    0.1351    0.0142
   -173.00    0.1572    0.0193
   -172.00    0.1791    0.0252
   -171.00    0.2008    0.0318
   -170.00    0.2222    0.0392
   -169.00    0.2434    0.0473
   -168.00    0.2643    0.0562
   -167.00    0.2849    0.0658
   -166.00    0.3051    0.0761
   -165.00    0.3249    0.0871
   -164.00    0.3443    0.0988
   -163.00    0.3634    0.1111
   -162.00    0.3819    0.1241
   -161.00    0.4001    0.1378
   -160.00    0.4177    0.1521
   -159.00    0.4348    0.1670
   -158.00    0.4514    0.1824
   -157.00    0.4674    0.1985
   -156.00    0.4829    0.2151
   -155.00    0.4978    0.2322
   -154.00    0.5121    0.2498
   -153.00    0.5257    0.2679
   -152.00    0.5387    0.2865
   -151.00    0.5511    0.3056
   -150.00    0.5627    0.3250
   -149.00    0.5737    0.3448
   -148.00    0.5840    0.3651
   -147.00    0.5936    0.3856
   -146.00    0.6025    0.4065
   -145.00    0.6106    0.4277
   -144.00    0.6180    0.4491
   -143.00    0.6246    0.4708
   -142.00    0.6305    0.4928
   -141.00    0.6356    0.5149
   -140.00    0.6399    0.5371
   -139.00    0.6435    0.5595
   -138.00    0.6462    0.5821
   -137.00    0.6482    0.6047
   -136.00    0.6494    0.6273
   -135.00    0.6498    0.6500
   -134.00    0.6494    0.6727
   -133.00    0.6482    0.6953
   -132.00    0.6462    0.7179
   -131.00    0.6435    0.7405
   -130.00    0.6399    0.7629
   -129.00    0.6356    0.7851
   -128.00    0.6305    0.8072
   -127.00    0.6246    0.8292
   -126.00    0.6180    0.8509
   -125.00    0.6106    0.8723
   -124.00    0.6025    0.8935
   -123.00    0.5936    0.9144
   -122.00    0.5840    0.9349
   -121.00    0.5737    0.9552
   -120.00    0.5627    0.9750
   -119.00    0.5511    0.9944
   -118.00    0.5387    1.0135
   -117.00    0.5257    1.0321
   -116.00    0.5121    1.0502
   -115.00    0.4978    1.0678
   -114.00    0.4829    1.0849
   -113.00    0.4674    1.1015
   -112.00    0.4514    1.1176
   -111.00    0.4348    1.1330
   -110.00    0.4177    1.1479
   -109.00    0.4001    1.1622
   -108.00    0.3819    1.1759
   -107.00    0.3634    1.1889
   -106.00    0.3443    1.2012
   -105.00    0.3249    1.2129
   -104.00    0.3051    1.2239
   -103.00    0.2849    1.2342
   -102.00    0.2643    1.2438
   -101.00    0.2434    1.2527
   -100.00    0.2222    1.2608
    -99.00    0.2008    1.2682
    -98.00    0.1791    1.2748
    -97.00    0.1572    1.2807
    -96.00    0.1351    1.2858
    -95.00    0.1128    1.2901
    -94.00    0.0904    1.2937
    -93.00    0.0679    1.2964
    -92.00    0.0453    1.2984
    -91.00    0.0227    1.2996
    -90.00   -0.0000    1.3000
    -89.00   -0.0228    1.2978
    -88.00   -0.0459    1.2948
    -87.00   -0.0691    1.2910
    -86.00   -0.0926    1.2864
    -85.00   -0.1162    1.2811
    -84.00   -0.1399    1.2749
    -83.00   -0.1638    1.2680
    -82.00   -0.1877    1.2604
    -81.00   -0.2116    1.2519
    -80.00   -0.2356    1.2427
    -79.00   -0.2596    1.2328
    -78.00   -0.2836    1.2222
    -77.00   -0.3075    1.2108
    -76.00   -0.3314    1.1988
    -75.00   -0.3552    1.1860
    -74.00   -0.3788    1.1726
    -73.00   -0.4023    1.1585
    -72.00   -0.4257    1.1437
    -71.00   -0.4489    1.1284
    -70.00   -0.4719    1.1124
    -69.00   -0.4948    1.0958
    -68.00   -0.5173    1.0786
    -67.00   -0.5397    1.0609
    -66.00   -0.5618    1.0426
    -65.00   -0.5836    1.0239
    -64.00   -0.6052    1.0046
    -63.00   -0.6264    0.9849
    -62.00   -0.6474    0.9647
    -61.00   -0.6681    0.9440
    -60.00   -0.6884    0.9230
    -59.00   -0.7085    0.9016
    -58.00   -0.7282    0.8798
    -57.00   -0.7476    0.8578
    -56.00   -0.7667    0.8354
    -55.00   -0.7854    0.8127
    -54.00   -0.8039    0.7897
    -53.00   -0.8220    0.7666
    -52.00   -0.8398    0.7432
    -51.00   -0.8574    0.7197
    -50.00   -0.8747    0.6960
    -49.00   -0.8917    0.6723
    -48.00   -0.9084    0.6484
    -47.00   -0.9250    0.6244
    -46.00   -0.9413    0.6005
    -45.00   -0.9575    0.5765
    -44.00   -0.9735    0.5525
    -43.00   -0.9894    0.5286
    -42.00   -1.0053    0.5048
    -41.00   -1.0212    0.4811
    -40.00   -1.0371    0.4575
    -39.00   -1.0531    0.4341
    -38.00   -1.0693    0.4108
    -37.00   -1.0857    0.3878
    -36.00   -1.1024    0.3650
    -35.00   -1.1195    0.3425
    -34.00   -1.1371    0.3203
    -33.00   -1.1554    0.2984
    -32.00   -1.1744    0.2769
    -31.00   -1.1942    0.2557
    -30.00   -1.2525    0.2254
    -29.00   -1.2700    0.2093
    -28.00   -1.2800    0.1940
    -26.00   -1.3145    0.1617
    -25.00   -1.3805    0.1391
    -24.00   -1.4445    0.1175
    -23.00   -1.5003    0.0982
    -22.00   -1.5398    0.0812
    -21.00   -1.5648    0.0668
    -20.00   -1.5870    0.0530
    -19.00   -1.5942    0.0418
    -18.00   -1.5767    0.0335
    -17.00   -1.5350    0.0280
    -16.00   -1.4978    0.0227
    -15.00   -1.4424    0.0193
    -14.00   -1.3811    0.0167
    -13.00   -1.3236    0.0147
    -12.00   -1.2180    0.0129
    -11.00   -1.1356    0.0116
    -10.00   -1.0530    0.0106
     -9.00   -0.9675    0.0097
     -8.00   -0.8695    0.0090
     -7.00   -0.7680    0.0084
     -6.00   -0.6622    0.0079
     -5.00   -0.5556    0.0075
     -4.00   -0.4459    0.0072
     -3.00   -0.3363    0.0069
     -2.00   -0.2245    0.0068
     -1.00   -0.1126    0.0066
      0.00    0.0000    0.0066
      1.00    0.1126    0.0066
      2.00    0.2245    0.0068
      3.00    0.3363    0.0069
      4.00    0.4460    0.0072
      5.00    0.5557    0.0075
      6.00    0.6623    0.0079
      7.00    0.7682    0.0084
      8.00    0.8698    0.0090
      9.00    0.9680    0.0097
     10.00    1.0538    0.0106
     11.00    1.1366    0.0116
     12.00    1.2192    0.0129
     13.00    1.3250    0.0147
     14.00    1.3827    0.0167
     15.00    1.4450    0.0192
     16.00    1.5007    0.0227
     17.00    1.5395    0.0278
     18.00    1.5819    0.0333
     19.00    1.6001    0.0415
     20.00    1.5935    0.0527
     21.00    1.5763    0.0660
     22.00    1.5503    0.0806
     23.00    1.5101    0.0977
     24.00    1.4532    0.1173
     25.00    1.3883    0.1391
     26.00    1.3211    0.1621
     28.00    1.2862    0.1949
     29.00    1.2754    0.2108
     30.00    1.2561    0.2280
     31.00    1.1973    0.2555
     32.00    1.1772    0.2767
     33.00    1.1581    0.2982
     34.00    1.1397    0.3201
     35.00    1.1220    0.3423
     36.00    1.1048    0.3648
     37.00    1.0879    0.3876
     38.00    1.0714    0.4106
     39.00    1.0551    0.4339
     40.00    1.0390    0.4573
     41.00    1.0230    0.4809
     42.00    1.0071    0.5046
     43.00    0.9911    0.5285
     44.00    0.9751    0.5524
     45.00    0.9590    0.5763
     46.00    0.9427    0.6003
     47.00    0.9263    0.6243
     48.00    0.9097    0.6482
     49.00    0.8929    0.6721
     50.00    0.8758    0.6959
     51.00    0.8585    0.7196
     52.00    0.8409    0.7431
     53.00    0.8230    0.7665
     54.00    0.8048    0.7896
     55.00    0.7863    0.8125
     56.00    0.7675    0.8352
     57.00    0.7484    0.8576
     58.00    0.7289    0.8797
     59.00    0.7091    0.9015
     60.00    0.6891    0.9229
     61.00    0.6687    0.9439
     62.00    0.6480    0.9646
     63.00    0.6269    0.9848
     64.00    0.6056    1.0045
     65.00    0.5840    1.0238
     66.00    0.5622    1.0426
     67.00    0.5400    1.0608
     68.00    0.5177    1.0785
     69.00    0.4950    1.0957
     70.00    0.4722    1.1123
     71.00    0.4492    1.1283
     72.00    0.4259    1.1437
     73.00    0.4025    1.1584
     74.00    0.3790    1.1725
     75.00    0.3553    1.1859
     76.00    0.3315    1.1987
     77.00    0.3076    1.2108
     78.00    0.2837    1.2221
     79.00    0.2597    1.2328
     80.00    0.2357    1.2427
     81.00    0.2117    1.2519
     82.00    0.1877    1.2603
     83.00    0.1638    1.2680
     84.00    0.1399    1.2749
     85.00    0.1162    1.2810
     86.00    0.0926    1.2864
     87.00    0.0691    1.2910
     88.00    0.0459    1.2948
     89.00    0.0228    1.2978
     90.00    0.0000    1.3000
     91.00   -0.0227    1.2996
     92.00   -0.0453    1.2984
     93.00   -0.0679    1.2964
     94.00   -0.0905    1.2937
     95.00   -0.1129    1.2901
     96.00   -0.1351    1.2858
     97.00   -0.1572    1.2807
     98.00   -0.1792    1.2748
     99.00   -0.2009    1.2682
    100.00   -0.2223    1.2608
    101.00   -0.2435    1.2527
    102.00   -0.2644    1.2438
    103.00   -0.2849    1.2342
    104.00   -0.3052    1.2239
    105.00   -0.3250    1.2129
    106.00   -0.3444    1.2012
    107.00   -0.3635    1.1889
    108.00   -0.3821    1.1759
    109.00   -0.4002    1.1622
    110.00   -0.4178    1.1479
    111.00   -0.4349    1.1330
    112.00   -0.4515    1.1176
    113.00   -0.4676    1.1015
    114.00   -0.4830    1.0849
    115.00   -0.4979    1.0678
    116.00   -0.5122    1.0502
    117.00   -0.5259    1.0321
    118.00   -0.5389    1.0135
    119.00   -0.5512    0.9944
    120.00   -0.5629    0.9750
    121.00   -0.5739    0.9552
    122.00   -0.5842    0.9349
    123.00   -0.5938    0.9144
    124.00   -0.6027    0.8935
    125.00   -0.6108    0.8723
    126.00   -0.6182    0.8509
    127.00   -0.6248    0.8292
    128.00   -0.6307    0.8072
    129.00   -0.6358    0.7851
    130.00   -0.6401    0.7629
    131.00   -0.6437    0.7405
    132.00   -0.6464    0.7179
    133.00   -0.6484    0.6953
    134.00   -0.6496    0.6727
    135.00   -0.6500    0.6500
    136.00   -0.6496    0.6273
    137.00   -0.6484    0.6047
    138.00   -0.6464    0.5821
    139.00   -0.6437    0.5595
    140.00   -0.6401    0.5371
    141.00   -0.6358    0.5149
    142.00   -0.6307    0.4928
    143.00   -0.6248    0.4708
    144.00   -0.6182    0.4491
    145.00   -0.6108    0.4277
    146.00   -0.6027    0.4065
    147.00   -0.5938    0.3856
    148.00   -0.5842    0.3651
    149.00   -0.5739    0.3448
    150.00   -0.5629    0.3250
    151.00   -0.5512    0.3056
    152.00   -0.5389    0.2865
    153.00   -0.5259    0.2679
    154.00   -0.5122    0.2498
    155.00   -0.4979    0.2322
    156.00   -0.4830    0.2151
    157.00   -0.4676    0.1985
    158.00   -0.4515    0.1824
    159.00   -0.4349    0.1670
    160.00   -0.4178    0.1521
    161.00   -0.4002    0.1378
    162.00   -0.3821    0.1241
    163.00   -0.3635    0.1111
    164.00   -0.3444    0.0988
    165.00   -0.3250    0.0871
    166.00   -0.3052    0.0761
    167.00   -0.2849    0.0658
    168.00   -0.2644    0.0562
    169.00   -0.2435    0.0473
    170.00   -0.2223    0.0392
    171.00   -0.2009    0.0318
    172.00   -0.1792    0.0252
    173.00   -0.1572    0.0193
    174.00   -0.1351    0.0142
    175.00   -0.1129    0.0099
    176.00   -0.0905    0.0063
    177.00   -0.0679    0.0036
    178.00   -0.0453    0.0016
    179.00   -0.0227    0.0004
    180.00   -0.0000    0.0000
